  4
MD iter: 0
 C                0.0 0.0 1.0 
 H                0.0 0.0 0.0
 C                1.0 0.0 1.0 
 H                1.0 0.0 0.0
  4
MD iter: 1
 C                 0.0 -0.5 0.5
 H                 0.0 0.0 0.0
 C                 1.0 0.0 1.0
 H                 1.0 0.0 0.0
  4
MD iter: 2
 C                 0.0 -1.0 0.0
 H                 0.0 0.0 0.0
 C                 1.0 0.0 1.0
 H                 1.0 0.0 0.0
  4
MD iter: 3
 C                 0.0 -0.5 -0.5
 H                 0.0 0.0 0.0
 C                 1.0 0.0 1.0
 H                 1.0 0.0 0.0
  4
MD iter: 4
 C                 0.0 0.0 -1.0
 H                 0.0 0.0 0.0
 C                 1.0 0.0 1.0
 H                 1.0 0.0 0.0
  4
MD iter: 5
 C                 0.0 0.5 -0.5
 H                 0.0 0.0 0.0
 C                 1.0 0.0 1.0
 H                 1.0 0.0 0.0
  4
MD iter: 6
 C                 0.0 1.0 0.0
 H                 0.0 0.0 0.0
 C                 1.0 0.0 1.0
 H                 1.0 0.0 0.0
  4
MD iter: 7
 C                 0.0 0.5 0.5
 H                 0.0 0.0 0.0
 C                 1.0 0.0 1.0
 H                 1.0 0.0 0.0
  4
MD iter: 8
 C                 0.0 0.0 1.0
 H                 0.0 0.0 0.0
 C                 1.0 0.0 1.0
 H                 1.0 0.0 0.0
  4
